examples/500-bus/nypa_500_cleaned.raw
0,   100.00, 33, 0, 1, 60.00     / PSS(R)E-33.4    THU, JUL 02 2020  22:49
NYPA

107430,'SOUTH HERO  ', 115.0000,1, 101, 107, 101,1.02045, -20.3785,1.10000,0.90000,1.10000,0.90000
107440,'NE_PV20_NY  ', 115.0000,1, 101, 107, 101,1.01888, -20.1630,1.10000,0.90000,1.10000,0.90000
107750,'BLISSVIL PAR', 115.0000,1, 101, 107, 101,1.01609, -66.8245,1.10000,0.90000,1.10000,0.90000
107751,'NE_K7_NY    ', 115.0000,1, 101, 107, 101,1.01520, -66.8524,1.10000,0.90000,1.10000,0.90000
107930,'BENNINGTON  ', 115.0000,1, 101, 107, 101,1.01937, -53.9813,1.10000,0.90000,1.10000,0.90000
107931,'NE_K6_NY    ', 115.0000,1, 101, 107, 101,1.00987, -54.2861,1.10000,0.90000,1.10000,0.90000
108894,'SWANTON GT  ',  13.8000,2, 101, 107, 101,1.00000, -32.8797,1.10000,0.90000,1.10000,0.90000
109550,'BELLOWS FALS',   6.9000,2, 101, 108, 101,1.00000, -51.5265,1.10000,0.90000,1.10000,0.90000
110984,'MATEP_CC    ',  13.8000,2, 101, 110, 101,1.01042, -66.5776,1.10000,0.90000,1.10000,0.90000
111126,'KENDALL CT  ',  18.0000,2, 101, 110, 101,1.00000, -52.6267,1.10000,0.90000,1.10000,0.90000
113001,'BEAR SWAMP  ', 230.0000,1, 101, 111, 101,1.04180, -45.8449,1.10000,0.90000,1.10000,0.90000
113096,'BEARSWAMP 1 ',  13.8000,2, 101, 111, 101,1.00000, -39.4150,1.10000,0.90000,1.10000,0.90000
113102,'FIFE BROOK  ',  13.8000,2, 101, 111, 101,1.00000, -42.1154,1.10000,0.90000,1.10000,0.90000
113405,'MILLENIUM CT',  16.0000,2, 101, 111, 101,1.00000, -47.1499,1.10000,0.90000,1.10000,0.90000
115005,'NE_E205W_NY ', 230.0000,1, 101, 111, 101,1.01728, -49.6713,1.10000,0.90000,1.10000,0.90000
115742,'DIGHTON PWR ',  22.0000,2, 101, 111, 101,1.00000, -51.2228,1.10000,0.90000,1.10000,0.90000
116023,'BERKSHIRE   ', 345.0000,1, 101, 112, 101,1.03927, -50.5857,1.10000,0.90000,1.10000,0.90000
116034,'NE_393_NY   ', 345.0000,1, 101, 112, 101,1.02864, -49.5757,1.10000,0.90000,1.10000,0.90000
116579,'CABOT HYDRO ',  13.8000,2, 101, 112, 101,1.00000, -45.8678,1.10000,0.90000,1.10000,0.90000
116618,'ALTRESCO_C1 ',  13.8000,2, 101, 112, 101,1.00000, -41.4991,1.10000,0.90000,1.10000,0.90000
119259,'LONG MTN    ', 345.0000,1, 101, 116, 101,1.03559, -66.4590,1.10000,0.90000,1.10000,0.90000
119272,'NE_398_NY   ', 345.0000,1, 101, 116, 101,1.02722, -66.3447,1.10000,0.90000,1.10000,0.90000
120380,'SALISBURY   ',  69.0000,1, 101, 116, 101,1.00769, -78.8989,1.10000,0.90000,1.10000,0.90000
120389,'NE_690_NY   ',  69.0000,1, 101, 116, 101,1.00966, -78.7062,1.10000,0.90000,1.10000,0.90000
121406,'NORWALK HRBR', 138.0000,1, 101, 116, 101,1.04099, -73.1569,1.10000,0.90000,1.10000,0.90000
121408,'NE_601_NY   ', 138.0000,1, 101, 116, 101,1.04325, -73.1996,1.10000,0.90000,1.10000,0.90000
121409,'NE_602_NY   ', 138.0000,1, 101, 116, 101,1.04325, -73.1996,1.10000,0.90000,1.10000,0.90000
121410,'NE_603_NY   ', 138.0000,1, 101, 116, 101,1.04324, -73.1996,1.10000,0.90000,1.10000,0.90000
121513,'LAKE ROAD_C1',  21.0000,2, 101, 116, 101,1.00000, -47.4045,1.10000,0.90000,1.10000,0.90000
122933,'COSCOB_GEN  ',  13.8000,2, 101, 116, 101,1.00000, -70.5393,1.10000,0.90000,1.10000,0.90000
125000,'HURLEY 3    ', 345.0000,1, 102, 154, 141,0.99986, -58.8797,1.10000,0.90000,1.10000,0.90000
125001,'ROCK TAV    ', 345.0000,1, 102, 154, 141,1.00968, -65.2431,1.10000,0.90000,1.10000,0.90000
125002,'ROSETON     ', 345.0000,1, 102, 154, 141,1.00191, -63.0247,1.10000,0.90000,1.10000,0.90000
125003,'SDU-HURLEY  ', 345.0000,1, 102, 154, 141,1.00274, -60.0936,1.10000,0.90000,1.10000,0.90000
125018,'SUGARLF     ', 115.0000,1, 102, 154, 141,1.00049, -67.0749,1.10000,0.90000,1.10000,0.90000
125019,'CHAD.LAK    ', 115.0000,1, 102, 154, 141,1.00937, -67.3080,1.10000,0.90000,1.10000,0.90000
125022,'E FISH I    ', 115.0000,1, 102, 154, 141,0.99722, -68.5290,1.10000,0.90000,1.10000,0.90000
125024,'E.WALD 1    ', 115.0000,2, 102, 154, 141,1.00229, -67.6418,1.10000,0.90000,1.10000,0.90000
125026,'FISHKILL    ', 115.0000,1, 102, 154, 141,0.99647, -68.7900,1.10000,0.90000,1.10000,0.90000
125030,'HURLEY 1    ', 115.0000,1, 102, 154, 141,0.99781, -65.0377,1.10000,0.90000,1.10000,0.90000
125033,'KNAPPS 1    ', 115.0000,2, 102, 154, 141,0.99655, -68.6096,1.10000,0.90000,1.10000,0.90000
125041,'N.CHELSE    ', 115.0000,1, 102, 154, 141,1.01357, -66.9976,1.10000,0.90000,1.10000,0.90000
125043,'PL.VAL 1    ', 115.0000,1, 102, 154, 141,0.99383, -67.5588,1.10000,0.90000,1.10000,0.90000
125044,'REYNOLDS    ', 115.0000,1, 102, 154, 141,1.00172, -67.8711,1.10000,0.90000,1.10000,0.90000
125046,'ROCK TV1    ', 115.0000,1, 102, 154, 141,1.00019, -67.0737,1.10000,0.90000,1.10000,0.90000
125080,'DANSK-N     ', 115.0000,1, 102, 154, 141,1.01773, -66.5521,1.10000,0.90000,1.10000,0.90000
125093,'COXSACK     ',  69.0000,2, 102, 154, 141,1.00000, -68.3702,1.10000,0.90000,1.10000,0.90000
125127,'SMITHFLD    ',  69.0000,1, 102, 154, 141,1.01706, -78.1042,1.10000,0.90000,1.10000,0.90000
125190,'ROSE GN1    ',  24.0000,2, 102, 154, 141,1.00000, -49.7505,1.10000,0.90000,1.10000,0.90000
125192,'ROSE GN2    ',  24.0000,2, 102, 154, 141,1.00000, -55.1324,1.10000,0.90000,1.10000,0.90000
125193,'DANSK G4    ',  16.1000,2, 102, 154, 141,1.00000, -61.7804,1.10000,0.90000,1.10000,0.90000
125195,'DANSK G2    ',  13.8000,2, 102, 154, 141,1.00000, -62.3533,1.10000,0.90000,1.10000,0.90000
126250,'RAMAPO 5    ', 500.0000,1, 102, 176, 142,1.02635, -85.4356,1.10000,0.90000,1.10000,0.90000
126251,'ER G6       ',  13.2000,2, 102, 159, 142,1.00000, -84.4373,1.10000,0.90000,1.10000,0.90000
126252,'ER G7       ',  13.2000,2, 102, 159, 142,0.98982, -82.5191,1.10000,0.90000,1.10000,0.90000
126257,'GOWGT1A     ',  13.8000,2, 102, 159, 142,1.00000, -83.9666,1.10000,0.90000,1.10000,0.90000
126260,'BOWLINE1    ', 345.0000,1, 102, 176, 142,1.01526, -69.7327,1.10000,0.90000,1.10000,0.90000
126261,'BOWLINE2    ', 345.0000,1, 102, 176, 142,1.01498, -69.8655,1.10000,0.90000,1.10000,0.90000
126262,'BUCHANAN N  ', 345.0000,1, 102, 167, 142,1.01163, -70.9004,1.10000,0.90000,1.10000,0.90000
126263,'BUCHANAN S  ', 345.0000,1, 102, 167, 142,1.00955, -71.8330,1.10000,0.90000,1.10000,0.90000
126265,'COGNTECH    ', 345.0000,1, 102, 159, 142,0.99953, -83.1482,1.10000,0.90000,1.10000,0.90000
126266,'DUNWOODIE   ', 345.0000,1, 102, 169, 142,1.00364, -78.3228,1.10000,0.90000,1.10000,0.90000
126267,'E VIEW 2N   ', 345.0000,1, 102, 169, 142,1.00239, -76.1145,1.10000,0.90000,1.10000,0.90000
126268,'E VIEW 1N   ', 345.0000,1, 102, 169, 142,1.00141, -76.3100,1.10000,0.90000,1.10000,0.90000
126269,'E VIEW 2S   ', 345.0000,1, 102, 169, 142,1.00131, -76.3203,1.10000,0.90000,1.10000,0.90000
126270,'E VIEW 1S   ', 345.0000,1, 102, 169, 142,1.00221, -76.3170,1.10000,0.90000,1.10000,0.90000
126271,'GOWGT2A     ',  13.8000,2, 102, 159, 142,1.00000, -83.5617,1.10000,0.90000,1.10000,0.90000
126272,'E13ST 45    ', 345.0000,1, 102, 159, 142,1.01979, -89.6267,1.10000,0.90000,1.10000,0.90000
126273,'E13ST 46    ', 345.0000,1, 102, 159, 142,1.01978, -89.6255,1.10000,0.90000,1.10000,0.90000
126274,'E13ST 47    ', 345.0000,1, 102, 159, 142,1.01949, -89.5999,1.10000,0.90000,1.10000,0.90000
126275,'E13ST 48    ', 345.0000,1, 102, 159, 142,1.01923, -89.6155,1.10000,0.90000,1.10000,0.90000
126277,'FARRAGUT    ', 345.0000,1, 102, 159, 142,1.01935, -89.6082,1.10000,0.90000,1.10000,0.90000
126278,'B3402 PAR1  ', 345.0000,1, 102, 159, 142,1.03591, -99.1954,1.10000,0.90000,1.10000,0.90000
126279,'C3403 PAR2  ', 345.0000,1, 102, 159, 142,1.03676, -99.2069,1.10000,0.90000,1.10000,0.90000
126280,'FARRAGUT TX9', 345.0000,1, 102, 159, 142,1.01937, -89.6080,1.10000,0.90000,1.10000,0.90000
126281,'E FISHKILL  ', 345.0000,1, 102, 167, 142,1.00247, -66.5608,1.10000,0.90000,1.10000,0.90000
126282,'FRESH KILLS ', 345.0000,1, 102, 159, 142,0.99916, -83.2757,1.10000,0.90000,1.10000,0.90000
126283,'GOTHLS      ', 345.0000,1, 102, 159, 142,0.99949, -83.2030,1.10000,0.90000,1.10000,0.90000
126284,'GOTHLS R    ', 345.0000,1, 102, 159, 142,1.00749, -96.4961,1.10000,0.90000,1.10000,0.90000
126285,'GOW R4      ', 345.0000,1, 102, 159, 142,0.99814, -83.6317,1.10000,0.90000,1.10000,0.90000
126286,'GOW R16     ', 345.0000,1, 102, 159, 142,0.99814, -83.6317,1.10000,0.90000,1.10000,0.90000
126287,'GOWANUS     ', 345.0000,1, 102, 159, 142,0.99814, -83.6317,1.10000,0.90000,1.10000,0.90000
126288,'IP2 345     ', 345.0000,1, 102, 167, 142,1.01210, -70.7889,1.10000,0.90000,1.10000,0.90000
126290,'LADENTWN    ', 345.0000,1, 102, 176, 142,1.01381, -70.1449,1.10000,0.90000,1.10000,0.90000
126291,'MILLWOOD    ', 345.0000,1, 102, 167, 142,1.00364, -73.9801,1.10000,0.90000,1.10000,0.90000
126292,'PL VILLE    ', 345.0000,1, 102, 169, 142,1.00003, -74.3680,1.10000,0.90000,1.10000,0.90000
126293,'PL VILLW    ', 345.0000,1, 102, 169, 142,0.99894, -74.5401,1.10000,0.90000,1.10000,0.90000
126294,'PLTVLLEY    ', 345.0000,1, 102, 176, 142,0.99973, -65.9666,1.10000,0.90000,1.10000,0.90000
126295,'RAINEY      ', 345.0000,1, 102, 159, 142,1.01878, -89.3602,1.10000,0.90000,1.10000,0.90000
126296,'RAM PAR     ', 345.0000,1, 102, 176, 142,1.02484, -86.5442,1.10000,0.90000,1.10000,0.90000
126297,'RAMAPO      ', 345.0000,1, 102, 176, 142,1.01345, -69.9227,1.10000,0.90000,1.10000,0.90000
126298,'SPRAINBROOK ', 345.0000,1, 102, 169, 142,1.00408, -78.2486,1.10000,0.90000,1.10000,0.90000
126299,'REACBUS     ', 345.0000,1, 102, 169, 142,1.00408, -78.2486,1.10000,0.90000,1.10000,0.90000
126300,'NARBARG1    ', 138.0000,1, 102, 159, 142,0.97041, -92.0019,1.10000,0.90000,1.10000,0.90000
126301,'TREMONT     ', 345.0000,1, 102, 159, 142,1.00279, -78.7159,1.10000,0.90000,1.10000,0.90000
126302,'NARRGT1A    ',  13.8000,2, 102, 159, 142,1.00000, -83.1814,1.10000,0.90000,1.10000,0.90000
126304,'W 49 ST     ', 345.0000,1, 102, 159, 142,1.02181, -89.5546,1.10000,0.90000,1.10000,0.90000
126305,'WOOD A      ', 345.0000,1, 102, 167, 142,0.99757, -70.8156,1.10000,0.90000,1.10000,0.90000
126306,'WOOD B      ', 345.0000,1, 102, 167, 142,0.99976, -71.8012,1.10000,0.90000,1.10000,0.90000
126307,'NARGARG2    ', 138.0000,1, 102, 159, 142,0.97034, -92.0141,1.10000,0.90000,1.10000,0.90000
126310,'ASTGT2      ', 138.0000,1, 102, 159, 142,0.97726, -83.4143,1.10000,0.90000,1.10000,0.90000
126311,'ASTEGT2A    ',  13.8000,2, 102, 159, 142,1.00000, -77.6242,1.10000,0.90000,1.10000,0.90000
126313,'BUCH138     ', 138.0000,1, 102, 167, 142,0.98822, -75.9391,1.10000,0.90000,1.10000,0.90000
126314,'PEEKDUM1    ', 138.0000,1, 102, 167, 142,0.98946, -75.9677,1.10000,0.90000,1.10000,0.90000
126315,'YORK TR1    ', 138.0000,1, 102, 159, 142,0.98805, -85.8059,1.10000,0.90000,1.10000,0.90000
126316,'YORK TR2    ', 138.0000,1, 102, 159, 142,0.98805, -85.8109,1.10000,0.90000,1.10000,0.90000
126321,'GOETHALS    ', 230.0000,1, 102, 159, 142,1.01832, -95.6772,1.10000,0.90000,1.10000,0.90000
126328,'GOWGT2B     ',  13.8000,2, 102, 159, 142,1.00000, -83.4688,1.10000,0.90000,1.10000,0.90000
126329,'GOWGT4B     ',  13.8000,2, 102, 159, 142,1.00000, -84.1665,1.10000,0.90000,1.10000,0.90000
126340,'KEYSPG-1    ',  18.0000,2, 102, 159, 142,1.00000, -85.2223,1.10000,0.90000,1.10000,0.90000
126342,'W74 TAP     ', 345.0000,1, 102, 169, 142,1.00364, -78.3228,1.10000,0.90000,1.10000,0.90000
126343,'W73 TAP     ', 345.0000,1, 102, 169, 142,1.00364, -78.3228,1.10000,0.90000,1.10000,0.90000
126353,'ASTORIA W-N ', 138.0000,1, 102, 159, 142,0.97705, -87.3885,1.10000,0.90000,1.10000,0.90000
126359,'PEEK13.8    ',  13.8000,2, 102, 167, 142,1.00000, -76.0877,1.10000,0.90000,1.10000,0.90000
126363,'CORONA-S    ', 138.0000,1, 102, 159, 142,0.97404, -83.9419,1.10000,0.90000,1.10000,0.90000
126368,'DUN NO      ', 138.0000,1, 102, 169, 142,0.99201, -83.0125,1.10000,0.90000,1.10000,0.90000
126369,'DUN NO S6   ', 138.0000,1, 102, 169, 142,0.99260, -82.4489,1.10000,0.90000,1.10000,0.90000
126372,'DUN SO      ', 138.0000,1, 102, 169, 142,0.98807, -82.9577,1.10000,0.90000,1.10000,0.90000
126373,'DUN SO N7   ', 138.0000,1, 102, 169, 142,0.99001, -82.3916,1.10000,0.90000,1.10000,0.90000
126378,'EASTVIEW    ', 138.0000,1, 102, 169, 142,0.96541, -79.9381,1.10000,0.90000,1.10000,0.90000
126379,'AST 2       ',  13.8000,2, 102, 159, 142,1.00000, -79.4779,1.10000,0.90000,1.10000,0.90000
126384,'E13 ST      ', 138.0000,1, 102, 159, 142,0.98970, -93.2548,1.10000,0.90000,1.10000,0.90000
126385,'E179 ST W   ', 138.0000,1, 102, 159, 142,0.97390, -82.1982,1.10000,0.90000,1.10000,0.90000
126398,'FGT_Y9      ', 138.0000,1, 102, 159, 142,0.99945, -91.3146,1.10000,0.90000,1.10000,0.90000
126416,'FOXHLLS1    ', 138.0000,1, 102, 159, 142,0.96946, -92.0768,1.10000,0.90000,1.10000,0.90000
126417,'FOXHLLS2    ', 138.0000,1, 102, 159, 142,0.97123, -92.0026,1.10000,0.90000,1.10000,0.90000
126418,'FRESH KILLS ', 138.0000,1, 102, 159, 142,0.97578, -91.2829,1.10000,0.90000,1.10000,0.90000
126419,'FRKILLR2    ', 138.0000,1, 102, 159, 142,0.98776, -88.0958,1.10000,0.90000,1.10000,0.90000
126420,'FRKILLSR    ', 138.0000,1, 102, 159, 142,0.98953, -88.2790,1.10000,0.90000,1.10000,0.90000
126427,'GOWNUST2    ', 138.0000,1, 102, 159, 142,0.99257, -86.6207,1.10000,0.90000,1.10000,0.90000
126428,'GOWNUSR14   ', 138.0000,1, 102, 159, 142,0.96903, -92.2416,1.10000,0.90000,1.10000,0.90000
126429,'GOWNUST14   ', 138.0000,1, 102, 159, 142,0.99321, -86.5463,1.10000,0.90000,1.10000,0.90000
126437,'FGT_X9      ', 138.0000,1, 102, 159, 142,0.98959, -85.2445,1.10000,0.90000,1.10000,0.90000
126442,'HG  1       ', 138.0000,1, 102, 159, 142,0.97606, -82.0969,1.10000,0.90000,1.10000,0.90000
126445,'HG  4       ', 138.0000,1, 102, 159, 142,0.97690, -82.1045,1.10000,0.90000,1.10000,0.90000
126447,'HG  6       ', 138.0000,1, 102, 159, 142,0.97604, -87.4412,1.10000,0.90000,1.10000,0.90000
126454,'KENTTAP     ', 138.0000,1, 102, 159, 142,0.97220, -92.0859,1.10000,0.90000,1.10000,0.90000
126455,'JAMAICA     ', 138.0000,1, 102, 159, 142,0.98459, -85.5212,1.10000,0.90000,1.10000,0.90000
126456,'JFK 138     ', 138.0000,1, 102, 159, 142,0.98851, -85.0695,1.10000,0.90000,1.10000,0.90000
126462,'PARK TR1    ', 138.0000,1, 102, 159, 142,0.97580, -84.7901,1.10000,0.90000,1.10000,0.90000
126463,'PARK TR2    ', 138.0000,1, 102, 159, 142,0.97556, -84.7933,1.10000,0.90000,1.10000,0.90000
126466,'SECT 11     ', 138.0000,1, 102, 159, 142,0.97319, -82.1677,1.10000,0.90000,1.10000,0.90000
126467,'SECT 12     ', 138.0000,1, 102, 159, 142,0.97282, -82.2114,1.10000,0.90000,1.10000,0.90000
126468,'ERGT1       ',  18.0000,2, 102, 159, 142,0.99914, -87.3782,1.10000,0.90000,1.10000,0.90000
126469,'ERGT2       ',  18.0000,2, 102, 159, 142,1.00000, -83.2756,1.10000,0.90000,1.10000,0.90000
126475,'QUENBRDG    ', 138.0000,1, 102, 159, 142,0.97552, -87.5850,1.10000,0.90000,1.10000,0.90000
126476,'RAINEY2E    ', 138.0000,1, 102, 159, 142,0.99660, -93.3580,1.10000,0.90000,1.10000,0.90000
126478,'RAINEY7E    ', 138.0000,1, 102, 159, 142,0.98935, -93.3170,1.10000,0.90000,1.10000,0.90000
126479,'RAINEY7W    ', 138.0000,1, 102, 159, 142,0.98968, -93.7940,1.10000,0.90000,1.10000,0.90000
126480,'RAINEY8E    ', 138.0000,1, 102, 159, 142,0.98023, -89.7235,1.10000,0.90000,1.10000,0.90000
126481,'RAINEY8W    ', 138.0000,1, 102, 159, 142,0.98337, -91.4395,1.10000,0.90000,1.10000,0.90000
126482,'RAINEY9E    ', 138.0000,1, 102, 159, 142,0.99571, -91.2355,1.10000,0.90000,1.10000,0.90000
126483,'S CREEK W   ', 138.0000,1, 102, 159, 142,0.97585, -82.0285,1.10000,0.90000,1.10000,0.90000
126517,'REACM51     ', 345.0000,1, 102, 169, 142,1.02772, -88.4392,1.10000,0.90000,1.10000,0.90000
126518,'REACM52     ', 345.0000,1, 102, 169, 142,1.02772, -88.4392,1.10000,0.90000,1.10000,0.90000
126543,'W49 ST 1    ', 138.0000,1, 102, 159, 142,0.99287, -93.0838,1.10000,0.90000,1.10000,0.90000
126544,'W49 ST 2    ', 138.0000,1, 102, 159, 142,0.99725, -93.0125,1.10000,0.90000,1.10000,0.90000
126545,'W49 ST 3    ', 138.0000,1, 102, 159, 142,0.99837, -93.5704,1.10000,0.90000,1.10000,0.90000
126546,'W49 ST 4    ', 138.0000,1, 102, 159, 142,0.99592, -93.3594,1.10000,0.90000,1.10000,0.90000
126547,'W49 ST 5    ', 138.0000,1, 102, 159, 142,0.99674, -94.0174,1.10000,0.90000,1.10000,0.90000
126582,'EAST RIVER  ',  69.0000,1, 102, 159, 142,0.96853, -90.2883,1.10000,0.90000,1.10000,0.90000
126588,'E74 GT1     ',  13.8000,2, 102, 159, 142,0.98631,-108.0808,1.10000,0.90000,1.10000,0.90000
126590,'GOWANUS 41SR', 345.0000,1, 102, 159, 142,1.01940, -89.4220,1.10000,0.90000,1.10000,0.90000
126591,'GOWANUS 42SR', 345.0000,1, 102, 159, 142,1.01940, -89.4220,1.10000,0.90000,1.10000,0.90000
126595,'FRESH KILLS ',  33.0000,1, 102, 159, 142,0.97680, -98.9520,1.10000,0.90000,1.10000,0.90000
126600,'REAC71      ', 345.0000,1, 102, 169, 142,1.02251, -88.3975,1.10000,0.90000,1.10000,0.90000
126601,'REAC72      ', 345.0000,1, 102, 169, 142,1.02260, -88.3275,1.10000,0.90000,1.10000,0.90000
126614,'NQ 27KV     ',  27.0000,1, 102, 159, 142,0.97653, -89.3833,1.10000,0.90000,1.10000,0.90000
126628,'MHTX1       ', 138.0000,1, 102, 159, 142,0.99308, -90.6217,1.10000,0.90000,1.10000,0.90000
126631,'MHTX2       ', 138.0000,1, 102, 159, 142,0.99223, -90.6168,1.10000,0.90000,1.10000,0.90000
126634,'MHTX3       ', 138.0000,1, 102, 159, 142,0.99960, -90.6101,1.10000,0.90000,1.10000,0.90000
126637,'MHTX4       ', 138.0000,1, 102, 159, 142,0.99248, -90.6092,1.10000,0.90000,1.10000,0.90000
126641,'MOTT HAVEN  ', 345.0000,1, 102, 159, 142,1.02008, -89.1508,1.10000,0.90000,1.10000,0.90000
126642,'RAINEY WEST ', 345.0000,1, 102, 159, 142,1.01878, -89.3602,1.10000,0.90000,1.10000,0.90000
126643,'RAINEY EAST ', 345.0000,1, 102, 159, 142,1.01878, -89.3602,1.10000,0.90000,1.10000,0.90000
126644,'FARRAGUT WES', 345.0000,1, 102, 159, 142,1.01935, -89.6082,1.10000,0.90000,1.10000,0.90000
126645,'FARRAGUT EAS', 345.0000,1, 102, 159, 142,1.01935, -89.6082,1.10000,0.90000,1.10000,0.90000
126650,'AK 3        ',  22.0000,2, 102, 159, 142,1.00000, -80.2237,1.10000,0.90000,1.10000,0.90000
126651,'IND PT 2    ',  22.0000,2, 102, 167, 142,1.00000, -61.6672,1.10000,0.90000,1.10000,0.90000
126652,'RAV 3       ',  22.0000,2, 102, 159, 142,1.00000, -85.1175,1.10000,0.90000,1.10000,0.90000
126653,'AK 2        ',  20.0000,2, 102, 159, 142,1.00000, -86.3476,1.10000,0.90000,1.10000,0.90000
126654,'AST 3       ',  20.0000,2, 102, 159, 142,1.00000, -81.0967,1.10000,0.90000,1.10000,0.90000
126656,'AST 5       ',  20.0000,2, 102, 159, 142,1.00000, -83.4355,1.10000,0.90000,1.10000,0.90000
126657,'RAV 1       ',  20.0000,2, 102, 159, 142,1.00000, -84.7522,1.10000,0.90000,1.10000,0.90000
126658,'RAV 2       ',  20.0000,2, 102, 159, 142,1.00000, -87.8137,1.10000,0.90000,1.10000,0.90000
126659,'COGENGT1    ',  13.8000,2, 102, 159, 142,1.00000, -81.3146,1.10000,0.90000,1.10000,0.90000
126660,'COGENGT2    ',  13.8000,2, 102, 159, 142,1.00000, -81.1701,1.10000,0.90000,1.10000,0.90000
126662,'COGENGT4    ',  13.8000,2, 102, 159, 142,1.00000, -81.1619,1.10000,0.90000,1.10000,0.90000
126664,'COGENST1    ',  13.8000,2, 102, 159, 142,1.00000, -81.3204,1.10000,0.90000,1.10000,0.90000
126672,'SCS138-E    ', 138.0000,1, 102, 159, 142,0.97861, -83.1347,1.10000,0.90000,1.10000,0.90000
126673,'SCS138-W    ', 138.0000,1, 102, 159, 142,0.97777, -83.3054,1.10000,0.90000,1.10000,0.90000
126674,'JFK G1      ',  13.8000,2, 102, 159, 142,1.00000, -80.3700,1.10000,0.90000,1.10000,0.90000
126676,'JFK G3      ',  13.8000,2, 102, 159, 142,1.00000, -80.2478,1.10000,0.90000,1.10000,0.90000
126683,'YORK CT2    ',  13.8000,2, 102, 159, 142,1.00000, -79.9536,1.10000,0.90000,1.10000,0.90000
126684,'YORK ST1    ',  13.8000,2, 102, 159, 142,1.00000, -83.7228,1.10000,0.90000,1.10000,0.90000
126686,'YORK CT1    ',  13.8000,2, 102, 159, 142,1.00000, -80.0189,1.10000,0.90000,1.10000,0.90000
126692,'SCS18-G4    ',  18.0000,2, 102, 159, 142,1.00000, -77.9803,1.10000,0.90000,1.10000,0.90000
126710,'SCS18-G5    ',  18.0000,2, 102, 159, 142,1.00000, -77.8000,1.10000,0.90000,1.10000,0.90000
126711,'SCS18-G6    ',  18.0000,2, 102, 159, 142,1.00000, -78.3395,1.10000,0.90000,1.10000,0.90000
126724,'GOETH 13    ',  13.6000,1, 102, 159, 142,0.98627, -95.9906,1.10000,0.90000,1.10000,0.90000
...
0 / END OF BUS DATA, BEGIN LOAD DATA
107430,'EQ',1, 101, 107,   119.397,   130.502,     0.000,     0.000,     0.000,     0.000, 101,1,0
107750,'EQ',1, 101, 107,   201.835,    68.626,     0.000,     0.000,     0.000,     0.000, 101,1,0
107930,'EQ',1, 101, 107,    85.200,    26.829,     0.000,     0.000,     0.000,     0.000, 101,1,0
108894,'1 ',1, 101, 107,     0.500,     0.500,     0.000,     0.000,     0.000,     0.000, 101,0,0
108894,'2 ',1, 101, 107,     0.500,     0.500,     0.000,     0.000,     0.000,     0.000, 101,0,0
108894,'EQ',1, 101, 107,    -8.015,    37.073,     0.000,     0.000,     0.000,     0.000, 101,1,0
109550,'EQ',1, 101, 108,    68.653,    36.080,     0.000,     0.000,     0.000,     0.000, 101,1,0
110984,'C3',1, 101, 110,     0.750,     0.000,     0.000,     0.000,     0.000,     0.000, 101,0,0
110984,'CC',1, 101, 110,     2.000,     1.200,     0.000,     0.000,     0.000,     0.000, 101,0,0
110984,'EQ',1, 101, 110,   718.554,   264.428,     0.000,     0.000,     0.000,     0.000, 101,1,0
111126,'4 ',1, 101, 110,     4.000,     2.460,     0.000,     0.000,     0.000,     0.000, 101,0,0
111126,'EQ',1, 101, 110,   197.135,   130.065,     0.000,     0.000,     0.000,     0.000, 101,1,0
113001,'EQ',1, 101, 111,   281.927,   153.718,     0.000,     0.000,     0.000,     0.000, 101,1,0
113096,'1 ',1, 101, 111,     1.980,     1.190,     0.000,     0.000,     0.000,     0.000, 101,0,0
113096,'EQ',1, 101, 111,     2.130,     1.280,     0.000,     0.000,     0.000,     0.000, 101,1,0
113102,'EQ',1, 101, 111,    -6.265,     8.324,     0.000,     0.000,     0.000,     0.000, 101,1,0
113405,'C1',1, 101, 111,     6.550,     3.930,     0.000,     0.000,     0.000,     0.000, 101,0,0
113405,'EQ',1, 101, 111,   267.494,   171.611,     0.000,     0.000,     0.000,     0.000, 101,1,0
115742,'1 ',1, 101, 111,     2.600,     1.400,     0.000,     0.000,     0.000,     0.000, 101,0,0
115742,'EQ',1, 101, 111,   155.998,    80.170,     0.000,     0.000,     0.000,     0.000, 101,1,0
116023,'EQ',1, 101, 112,   545.807,   239.461,     0.000,     0.000,     0.000,     0.000, 101,1,0
116579,'EQ',1, 101, 112,    42.238,    23.064,     0.000,     0.000,     0.000,     0.000, 101,1,0
116618,'C1',1, 101, 112,     1.090,     0.660,     0.000,     0.000,     0.000,     0.000, 101,0,0
116618,'EQ',1, 101, 112,    71.127,    31.406,     0.000,     0.000,     0.000,     0.000, 101,1,0
119259,'EQ',1, 101, 116,  1319.965,   394.621,     0.000,     0.000,     0.000,     0.000, 101,1,0
120380,'EQ',1, 101, 116,    50.702,     0.833,     0.000,     0.000,     0.000,     0.000, 101,1,0
121406,'EQ',1, 101, 116,   632.361,   138.793,     0.000,     0.000,     0.000,     0.000, 101,1,0
121513,'1 ',1, 101, 116,     5.000,     3.800,     0.000,     0.000,     0.000,     0.000, 101,0,0
121513,'EQ',1, 101, 116,   536.285,   375.246,     0.000,     0.000,     0.000,     0.000, 101,1,0
122933,'EQ',1, 101, 116,   161.960,    54.015,     0.000,     0.000,     0.000,     0.000, 101,1,0
125019,'EQ',1, 102, 154,    27.822,     4.258,     0.000,     0.000,     0.000,     0.000, 141,1,0
125022,'EQ',1, 102, 154,    83.226,    36.446,     0.000,     0.000,     0.000,     0.000, 141,1,0
125024,'1 ',1, 102, 154,    14.491,     0.818,     0.000,     0.000,     0.000,     0.000, 141,1,0
125024,'EQ',1, 102, 154,    66.066,    17.897,     0.000,     0.000,     0.000,     0.000, 141,1,0
125026,'1 ',1, 102, 154,    40.741,     6.738,     0.000,     0.000,     0.000,     0.000, 141,1,0
125026,'EQ',1, 102, 154,    74.036,    41.796,     0.000,     0.000,     0.000,     0.000, 141,1,0
125030,'1 ',1, 102, 154,    18.149,     1.014,     0.000,     0.000,     0.000,     0.000, 141,1,0
125030,'EQ',1, 102, 154,   111.377,    20.051,     0.000,     0.000,     0.000,     0.000, 141,1,0
125033,'1 ',1, 102, 154,    19.863,     3.980,     0.000,     0.000,     0.000,     0.000, 141,1,0
125033,'EQ',1, 102, 154,    71.136,     9.688,     0.000,     0.000,     0.000,     0.000, 141,1,0
125041,'1 ',1, 102, 154,    19.431,     4.739,     0.000,     0.000,     0.000,     0.000, 141,1,0
125041,'EQ',1, 102, 154,    75.845,    18.116,     0.000,     0.000,     0.000,     0.000, 141,1,0
125043,'EQ',1, 102, 154,   131.377,    22.252,     0.000,     0.000,     0.000,     0.000, 141,1,0
125044,'1 ',1, 102, 154,    30.869,     7.352,     0.000,     0.000,     0.000,     0.000, 141,1,0
125044,'EQ',1, 102, 154,    55.090,     3.408,     0.000,     0.000,     0.000,     0.000, 141,1,0
125046,'EQ',1, 102, 154,   103.823,    19.484,     0.000,     0.000,     0.000,     0.000, 141,1,0
125080,'EQ',1, 102, 154,    27.976,     2.294,     0.000,     0.000,     0.000,     0.000, 141,1,0
125093,'1 ',1, 102, 154,    14.137,     0.830,     0.000,     0.000,     0.000,     0.000, 141,1,0
125093,'EQ',1, 102, 154,    61.695,     3.216,     0.000,     0.000,     0.000,     0.000, 141,1,0
125127,'1 ',1, 102, 154,     1.084,     0.307,     0.000,     0.000,     0.000,     0.000, 141,1,0
125127,'EQ',1, 102, 154,    28.790,     1.224,     0.000,     0.000,     0.000,     0.000, 141,1,0
126313,'EQ',1, 102, 167,   123.492,    69.951,     0.000,     0.000,     0.000,     0.000, 142,1,0
126353,'EQ',1, 102, 159,   269.064,   171.254,     0.000,     0.000,     0.000,     0.000, 142,1,0
126363,'EQ',1, 102, 159,   832.523,   488.879,     0.000,     0.000,     0.000,     0.000, 142,1,0
126368,'EQ',1, 102, 169,   316.132,   198.796,     0.000,     0.000,     0.000,     0.000, 142,1,0
126372,'EQ',1, 102, 169,   313.323,   159.645,     0.000,     0.000,     0.000,     0.000, 142,1,0
126378,'EQ',1, 102, 169,   748.913,   491.739,     0.000,     0.000,     0.000,     0.000, 142,1,0
126384,'EQ',1, 102, 159,  1024.046,   715.421,     0.000,     0.000,     0.000,     0.000, 142,1,0
126385,'EQ',1, 102, 159,   260.152,   215.058,     0.000,     0.000,     0.000,     0.000, 142,1,0
126398,'EQ',1, 102, 159,    64.989,    37.924,     0.000,     0.000,     0.000,     0.000, 142,1,0
126416,'EQ',1, 102, 159,   161.179,    83.590,     0.000,     0.000,     0.000,     0.000, 142,1,0
126417,'EQ',1, 102, 159,    85.605,    43.181,     0.000,     0.000,     0.000,     0.000, 142,1,0
126418,'EQ',1, 102, 159,   242.968,   129.898,     0.000,     0.000,     0.000,     0.000, 142,1,0
126428,'EQ',1, 102, 159,  1278.764,   734.040,     0.000,     0.000,     0.000,     0.000, 142,1,0
126447,'EQ',1, 102, 159,   270.198,   174.425,     0.000,     0.000,     0.000,     0.000, 142,1,0
126455,'EQ',1, 102, 159,   581.452,   332.844,     0.000,     0.000,     0.000,     0.000, 142,1,0
126466,'EQ',1, 102, 159,   171.252,   102.510,     0.000,     0.000,     0.000,     0.000, 142,1,0
126467,'EQ',1, 102, 159,   229.305,   139.220,     0.000,     0.000,     0.000,     0.000, 142,1,0
126475,'EQ',1, 102, 159,   385.579,   297.175,     0.000,     0.000,     0.000,     0.000, 142,1,0
126476,'EQ',1, 102, 159,   147.377,    97.837,     0.000,     0.000,     0.000,     0.000, 142,1,0
126478,'EQ',1, 102, 159,   147.507,   100.667,     0.000,     0.000,     0.000,     0.000, 142,1,0
126479,'EQ',1, 102, 159,   149.130,    98.764,     0.000,     0.000,     0.000,     0.000, 142,1,0
126480,'EQ',1, 102, 159,   361.042,   207.800,     0.000,     0.000,     0.000,     0.000, 142,1,0
126481,'EQ',1, 102, 159,   575.792,   326.555,     0.000,     0.000,     0.000,     0.000, 142,1,0
126482,'EQ',1, 102, 159,    54.282,    34.962,     0.000,     0.000,     0.000,     0.000, 142,1,0
126483,'EQ',1, 102, 159,   288.250,   170.882,     0.000,     0.000,     0.000,     0.000, 142,1,0
126543,'EQ',1, 102, 159,   181.792,   128.842,     0.000,     0.000,     0.000,     0.000, 142,1,0
126544,'EQ',1, 102, 159,   172.724,   123.213,     0.000,     0.000,     0.000,     0.000, 142,1,0
126545,'EQ',1, 102, 159,   224.237,   159.377,     0.000,     0.000,     0.000,     0.000, 142,1,0
126546,'EQ',1, 102, 159,   205.613,   144.919,     0.000,     0.000,     0.000,     0.000, 142,1,0
126547,'EQ',1, 102, 159,   263.645,   181.808,     0.000,     0.000,     0.000,     0.000, 142,1,0
126582,'EQ',1, 102, 159,   421.889,   313.441,     0.000,     0.000,     0.000,     0.000, 142,1,0
126588,'EQ',1, 102, 159,   111.896,    60.853,     0.000,     0.000,     0.000,     0.000, 142,1,0
126595,'1 ',1, 102, 159,   132.948,    56.635,    45.430,    19.353,    14.360,    -6.118, 142,1,0
126614,'1 ',1, 102, 159,   173.339,    68.508,    11.980,     4.734,    32.463,   -12.830, 142,1,0
126628,'EQ',1, 102, 159,    80.793,    47.455,     0.000,     0.000,     0.000,     0.000, 142,1,0
126631,'EQ',1, 102, 159,    80.533,    47.334,     0.000,     0.000,     0.000,     0.000, 142,1,0
126634,'EQ',1, 102, 159,    81.032,    47.635,     0.000,     0.000,     0.000,     0.000, 142,1,0
126637,'EQ',1, 102, 159,    80.471,    47.307,     0.000,     0.000,     0.000,     0.000, 142,1,0
126642,'EQ',1, 102, 159,    69.160,    55.894,     0.000,     0.000,     0.000,     0.000, 142,1,0
126644,'EQ',1, 102, 159,   855.336,   576.319,     0.000,     0.000,     0.000,     0.000, 142,1,0
126645,'EQ',1, 102, 159,   850.664,   574.592,     0.000,     0.000,     0.000,     0.000, 142,1,0
126733,'1 ',1, 102, 169,    54.557,    21.562,    18.205,     7.194,     5.619,    -2.221, 142,1,0
126774,'EQ',1, 102, 167,   158.905,    88.716,     0.000,     0.000,     0.000,     0.000, 142,1,0
128842,'EQ',1, 102, 156,  -668.197,   363.656,     0.000,     0.000,     0.000,     0.000, 143,1,0
128900,'EQ',1, 102, 156,    73.045,    47.929,     0.000,     0.000,     0.000,     0.000, 143,1,0
129024,'EQ',1, 102, 156,   373.266,   190.289,     0.000,     0.000,     0.000,     0.000, 143,1,0
129071,'EQ',1, 102, 156,   110.081,    64.395,     0.000,     0.000,     0.000,     0.000, 143,1,0
129076,'EQ',1, 102, 156,   105.560,    56.323,     0.000,     0.000,     0.000,     0.000, 143,1,0
129081,'EQ',1, 102, 156,   262.065,   112.704,     0.000,     0.000,     0.000,     0.000, 143,1,0
129092,'EQ',1, 102, 156,   279.437,   130.810,     0.000,     0.000,     0.000,     0.000, 143,1,0
129109,'EQ',1, 102, 156,   824.523,   357.236,     0.000,     0.000,     0.000,     0.000, 143,1,0
129270,'1 ',1, 102, 156,    71.093,    40.243,     0.000,     0.000,     0.000,     0.000, 143,1,0
129270,'EQ',1, 102, 156,   441.049,   148.457,     0.000,     0.000,     0.000,     0.000, 143,1,0
129281,'EQ',1, 102, 156,    69.773,    28.944,     0.000,     0.000,     0.000,     0.000, 143,1,0
129293,'EQ',1, 102, 156,   341.078,   138.740,     0.000,     0.000,     0.000,     0.000, 143,1,0
129310,'1 ',1, 102, 156,    79.579,    23.922,     0.000,     0.000,     0.000,     0.000, 143,1,0
129310,'EQ',1, 102, 156,   950.898,   365.960,     0.000,     0.000,     0.000,     0.000, 143,1,0
129343,'EQ',1, 102, 156,   157.467,    75.584,     0.000,     0.000,     0.000,     0.000, 143,1,0
129458,'EQ',1, 102, 156,   554.775,   206.368,     0.000,     0.000,     0.000,     0.000, 143,1,0
129469,'EQ',1, 102, 156,    77.498,    26.589,     0.000,     0.000,     0.000,     0.000, 143,1,0
129621,'EQ',1, 102, 156,   176.064,    46.805,     0.000,     0.000,     0.000,     0.000, 143,1,0
130750,'EQ',1, 102, 151,   123.397,    87.317,     0.000,     0.000,     0.000,     0.000, 144,1,0
130755,'EQ',1, 102, 150,   -14.860,    -9.823,     0.000,     0.000,     0.000,     0.000, 144,1,0
130762,'EQ',1, 102, 149,   -26.268,   -16.477,     0.000,     0.000,     0.000,     0.000, 144,1,0
130763,'EQ',1, 102, 150,    -2.386,    -1.194,     0.000,     0.000,     0.000,     0.000, 144,1,0
130764,'EQ',1, 102, 150,    -1.722,    -0.948,     0.000,     0.000,     0.000,     0.000, 144,1,0
130766,'EQ',1, 102, 149,    -0.426,     0.000,     0.000,     0.000,     0.000,     0.000, 144,1,0
130772,'1 ',1, 102, 150,     7.007,     3.017,     0.000,     0.000,     0.000,     0.000, 144,1,0
130805,'EQ',1, 102, 151,   120.947,    87.565,     0.000,     0.000,     0.000,     0.000, 144,1,0
130806,'EQ',1, 102, 145,   710.858,   335.701,     0.000,     0.000,     0.000,     0.000, 145,1,0
130807,'EQ',1, 102, 150,    64.661,    43.368,     0.000,     0.000,     0.000,     0.000, 144,1,0
130814,'EQ',1, 102, 150,   131.760,    71.377,     0.000,     0.000,     0.000,     0.000, 144,1,0
130815,'EQ',1, 102, 145,   278.852,   123.876,     0.000,     0.000,     0.000,     0.000, 145,1,0
130824,'EQ',1, 102, 150,   202.054,   146.428,     0.000,     0.000,     0.000,     0.000, 144,1,0
130826,'EQ',1, 102, 150,   106.311,    51.778,     0.000,     0.000,     0.000,     0.000, 144,1,0
130830,'EQ',1, 102, 150,   126.395,    60.808,     0.000,     0.000,     0.000,     0.000, 144,1,0
130836,'EQ',1, 102, 150,    62.429,    25.307,     0.000,     0.000,     0.000,     0.000, 144,1,0
130838,'EQ',1, 102, 150,   332.605,   229.350,     0.000,     0.000,     0.000,     0.000, 144,1,0
130845,'EQ',1, 102, 150,    47.605,    19.721,     0.000,     0.000,     0.000,     0.000, 144,1,0
130846,'EQ',1, 102, 149,    24.876,    11.831,     0.000,     0.000,     0.000,     0.000, 144,1,0
130857,'EQ',1, 102, 149,   192.109,   113.793,     0.000,     0.000,     0.000,     0.000, 144,1,0
130865,'EQ',1, 102, 174,   280.422,   154.059,     0.000,     0.000,     0.000,     0.000, 144,1,0
131103,'EQ',1, 102, 150,     4.606,     5.187,     0.000,     0.000,     0.000,     0.000, 144,1,0
131155,'EQ',1, 102, 150,    66.288,    44.886,     0.000,     0.000,     0.000,     0.000, 144,1,0
131241,'EQ',1, 102, 150,    91.365,    63.084,     0.000,     0.000,     0.000,     0.000, 144,1,0
131393,'EQ',1, 102, 150,    12.681,    15.228,     0.000,     0.000,     0.000,     0.000, 144,1,0
131611,'1 ',1, 102, 149,    32.814,    22.018,     0.000,     0.000,     0.000,     0.000, 144,1,0
131611,'EQ',1, 102, 149,    18.038,     6.040,     0.000,     0.000,     0.000,     0.000, 144,1,0
131613,'1 ',1, 102, 149,    14.502,     4.973,     0.000,     0.000,     0.000,     0.000, 144,1,0
131646,'EQ',1, 102, 149,     0.206,     0.165,     0.000,     0.000,     0.000,     0.000, 144,1,0
131753,'EQ',1, 102, 163,    36.088,    18.970,     0.000,     0.000,     0.000,     0.000, 144,1,0
134854,'EQ',1, 102, 150,     9.189,     6.564,     0.000,     0.000,     0.000,     0.000, 144,1,0
134862,'1 ',1, 102, 150,     5.754,     0.000,     0.000,     0.000,     0.000,     0.000, 144,1,0
135273,'EQ',1, 102, 145,   116.867,    49.904,     0.000,     0.000,     0.000,     0.000, 145,1,0
135277,'EQ',1, 102, 145,   124.931,    47.334,     0.000,     0.000,     0.000,     0.000, 145,1,0
135406,'1 ',1, 102, 145,     6.930,     2.180,     0.000,     0.000,     0.000,     0.000, 145,0,0
135406,'EQ',1, 102, 145,    43.842,    23.673,     0.000,     0.000,     0.000,     0.000, 145,1,0
135435,'EQ',1, 102, 145,    14.393,     4.755,     0.000,     0.000,     0.000,     0.000, 145,1,0
135436,'1 ',1, 102, 145,   157.173,    37.289,     0.000,     0.000,     0.000,     0.000, 145,1,0
135451,'EQ',1, 102, 145,   132.560,    58.949,     0.000,     0.000,     0.000,     0.000, 145,1,0
135460,'EQ',1, 102, 145,   103.937,    56.526,     0.000,     0.000,     0.000,     0.000, 145,1,0
135461,'EQ',1, 102, 145,   164.629,    56.400,     0.000,     0.000,     0.000,     0.000, 145,1,0
135497,'EQ',1, 102, 145,    28.231,    10.132,     0.000,     0.000,     0.000,     0.000, 145,1,0
135498,'EQ',1, 102, 145,    31.583,    10.582,     0.000,     0.000,     0.000,     0.000, 145,1,0
135546,'1 ',1, 102, 145,    21.960,     9.660,     0.000,     0.000,     0.000,     0.000, 145,0,0
135564,'EQ',1, 102, 145,   104.977,    40.993,     0.000,     0.000,     0.000,     0.000, 145,1,0
135568,'1 ',1, 102, 145,     3.510,     1.840,     0.000,     0.000,     0.000,     0.000, 145,0,0
135568,'EQ',1, 102, 145,    18.692,     8.284,     0.000,     0.000,     0.000,     0.000, 145,1,0
135587,'1 ',1, 102, 145,    97.965,    42.911,     0.000,     0.000,     0.000,     0.000, 145,1,0
135871,'EQ',1, 102, 173,   147.046,    60.670,     0.000,     0.000,     0.000,     0.000, 145,1,0
136101,'EQ',1, 102, 147,     2.593,     0.852,     0.000,     0.000,     0.000,     0.000, 145,1,0
136102,'EQ',1, 102, 147,     2.593,     0.852,     0.000,     0.000,     0.000,     0.000, 145,1,0
136155,'EQ',1, 102, 146,     5.732,     0.010,     0.000,     0.000,     0.000,     0.000, 145,1,0
136181,'EQ',1, 102, 146,   239.470,    98.254,     0.000,     0.000,     0.000,     0.000, 145,1,0
136189,'EQ',1, 102, 146,   326.625,   137.624,     0.000,     0.000,     0.000,     0.000, 145,1,0
136191,'EQ',1, 102, 146,   290.573,   170.302,     0.000,     0.000,     0.000,     0.000, 145,1,0
136225,'EQ',1, 102, 146,   134.587,    85.941,     0.000,     0.000,     0.000,     0.000, 145,1,0
136253,'EQ',1, 102, 146,   125.544,    60.180,     0.000,     0.000,     0.000,     0.000, 145,1,0
136398,'EQ',1, 102, 146,    37.471,    13.741,     0.000,     0.000,     0.000,     0.000, 145,1,0
136706,'EQ',1, 102, 146,     3.733,     4.340,     0.000,     0.000,     0.000,     0.000, 145,1,0
136755,'EQ',1, 102, 147,    52.815,    20.504,     0.000,     0.000,     0.000,     0.000, 145,1,0
136762,'1 ',1, 102, 147,     9.750,     2.076,     0.000,     0.000,     0.000,     0.000, 145,1,0
136762,'EQ',1, 102, 147,    -3.279,     4.448,     0.000,     0.000,     0.000,     0.000, 145,1,0
136767,'EQ',1, 102, 175,   119.268,    52.549,     0.000,     0.000,     0.000,     0.000, 145,1,0
136772,'1 ',1, 102, 147,    26.820,    13.887,     0.000,     0.000,     0.000,     0.000, 145,0,0
136772,'EQ',1, 102, 147,     5.403,     4.879,     0.000,     0.000,     0.000,     0.000, 145,1,0
136773,'EQ',1, 102, 147,   133.247,    52.970,     0.000,     0.000,     0.000,     0.000, 145,1,0
136775,'1 ',1, 102, 147,     3.089,     0.624,     0.000,     0.000,     0.000,     0.000, 145,0,0
136775,'EQ',1, 102, 147,    16.201,     6.118,     0.000,     0.000,     0.000,     0.000, 145,1,0
136786,'1 ',1, 102, 147,     1.443,     0.633,     0.000,     0.000,     0.000,     0.000, 145,1,0
136789,'1 ',1, 102, 147,    10.656,     1.203,     0.000,     0.000,     0.000,     0.000, 145,1,0
136789,'EQ',1, 102, 147,    24.742,    12.121,     0.000,     0.000,     0.000,     0.000, 145,1,0
136795,'1 ',1, 102, 175,     0.674,     0.325,     0.000,     0.000,     0.000,     0.000, 145,1,0
136795,'EQ',1, 102, 175,    20.029,     9.618,     0.000,     0.000,     0.000,     0.000, 145,1,0
136796,'1 ',1, 102, 147,     3.961,     2.712,     0.000,     0.000,     0.000,     0.000, 145,0,0
136796,'EQ',1, 102, 147,    14.012,     7.321,     0.000,     0.000,     0.000,     0.000, 145,1,0
136807,'EQ',1, 102, 147,    44.301,    28.604,     0.000,     0.000,     0.000,     0.000, 145,1,0
136824,'EQ',1, 102, 147,     0.174,     0.305,     0.000,     0.000,     0.000,     0.000, 145,1,0
136918,'EQ',1, 102, 175,    15.799,     7.278,     0.000,     0.000,     0.000,     0.000, 145,1,0
137154,'EQ',1, 102, 147,     6.265,     4.937,     0.000,     0.000,     0.000,     0.000, 145,1,0
137212,'EQ',1, 102, 147,     3.189,     1.875,     0.000,     0.000,     0.000,     0.000, 145,1,0
137233,'1 ',1, 102, 147,    35.874,     6.231,     0.000,     0.000,     0.000,     0.000, 145,1,0
137233,'EQ',1, 102, 147,   255.725,    85.284,     0.000,     0.000,     0.000,     0.000, 145,1,0
137235,'EQ',1, 102, 147,   221.999,   107.109,     0.000,     0.000,     0.000,     0.000, 145,1,0
137488,'1 ',1, 102, 148,    17.947,     7.242,     0.000,     0.000,     0.000,     0.000, 145,1,0
137488,'EQ',1, 102, 148,    41.532,    25.947,     0.000,     0.000,     0.000,     0.000, 145,1,0
137496,'EQ',1, 102, 148,    34.413,    18.938,     0.000,     0.000,     0.000,     0.000, 145,1,0
137502,'1 ',1, 102, 148,    28.968,    13.119,     0.000,     0.000,     0.000,     0.000, 145,1,0
137502,'EQ',1, 102, 148,    65.060,    30.861,     0.000,     0.000,     0.000,     0.000, 145,1,0
...
0 / END OF LOAD DATA, BEGIN FIXED SHUNT DATA
107430,'EQ',1,     3.528,   169.465
107750,'EQ',1,    -6.434,   132.868
107930,'EQ',1,    -2.249,    63.438
108894,'EQ',1,     0.941,    34.837
109550,'EQ',1,     3.661,    17.576
110984,'EQ',1,     3.621,   420.578
111126,'EQ',1,    -0.422,   139.295
113001,'EQ',1,   -18.983,   479.250
113096,'EQ',1,     6.588,  -251.583
113102,'EQ',1,     0.824,    -2.025
113405,'EQ',1,     3.231,   155.394
115742,'EQ',1,     2.490,    28.648
116023,'1 ',1,     0.000,   100.000
116023,'EQ',1,   -17.733,   472.130
116579,'EQ',1,     3.423,     5.201
116618,'EQ',1,    -1.299,    26.374
119259,'1 ',1,     0.000,   200.000
119259,'EQ',1,    -6.959,   849.201
120380,'1 ',1,     0.000,    10.000
120380,'EQ',1,    -1.038,     9.411
121406,'EQ',1,     4.076,   211.416
121513,'EQ',1,    10.231,   351.961
122933,'EQ',1,     1.803,    54.718
125019,'EQ',1,     0.023,     6.550
125022,'EQ',1,     0.138,    56.634
125024,'EQ',1,     0.986,     8.636
125026,'EQ',1,     2.277,    27.832
125030,'1 ',1,     0.000,    22.960
125030,'EQ',1,    -0.637,    49.206
125033,'EQ',1,     1.701,     0.566
125041,'EQ',1,    -1.485,    26.144
125043,'EQ',1,     0.363,    29.565
125044,'1 ',1,     0.000,     9.620
125044,'EQ',1,     0.038,    12.408
125046,'EQ',1,     0.074,     1.856
125080,'EQ',1,    -0.070,     9.042
125093,'EQ',1,     0.468,    12.381
125127,'1 ',1,     0.000,    10.000
125127,'EQ',1,    -0.154,     7.467
126262,'EQ',1,     0.220,   -11.794
126270,'EQ',1,    -1.089,    65.394
126271,'EQ',1,    -0.096,    -0.948
126272,'EQ',1,    -1.275,    78.280
126273,'EQ',1,    -1.222,    65.480
126275,'EQ',1,    -1.105,    50.834
126278,'1 ',1,     0.000,   -60.000
126281,'1 ',1,     0.000,   270.000
126283,'1 ',1,     0.000,  -150.000
126285,'1 ',1,     0.000,  -150.000
126286,'1 ',1,     0.000,  -150.000
126295,'EQ',1,    28.298,  1469.908
126304,'EQ',1,    -0.025,     1.823
126310,'EQ',1,     0.004,     0.195
126313,'EQ',1,    -0.126,    56.563
126328,'EQ',1,    -0.097,    -0.944
126340,'EQ',1,     0.006,    -0.312
126342,'EQ',1,     1.132,   -67.331
126353,'EQ',1,    -0.169,    97.969
126363,'EQ',1,     0.610,   261.420
126368,'EQ',1,    -0.008,   248.316
126372,'EQ',1,     0.761,    72.614
126378,'1 ',1,     0.000,  -160.000
126378,'EQ',1,     2.004,   342.589
126384,'EQ',1,     7.462,   115.294
126385,'EQ',1,    -0.247,   119.169
126398,'EQ',1,     0.180,    49.438
126416,'EQ',1,     0.049,    27.599
126417,'EQ',1,    -0.007,    27.305
126418,'EQ',1,     2.773,   144.351
126428,'EQ',1,     0.558,   393.724
126437,'EQ',1,    -0.024,     2.662
126447,'EQ',1,     0.116,   101.249
126455,'EQ',1,     1.905,   253.126
126466,'EQ',1,     0.069,    47.300
126467,'EQ',1,     0.115,    72.934
126475,'EQ',1,     0.218,   117.574
126476,'EQ',1,    -0.012,    68.279
126478,'EQ',1,     0.145,    57.589
126479,'EQ',1,     0.209,    56.063
126480,'EQ',1,     0.656,   177.594
126481,'EQ',1,    -1.470,   428.931
126482,'EQ',1,     0.371,    -0.884
126483,'EQ',1,    -0.777,   144.975
126543,'EQ',1,    -0.723,    78.710
126544,'EQ',1,     0.317,    59.151
126545,'EQ',1,    -0.191,    79.548
126546,'EQ',1,    -0.331,    76.818
126547,'EQ',1,    -0.431,    98.075
126582,'EQ',1,    -2.697,   207.626
126588,'EQ',1,    -0.182,    60.192
126595,'EQ',1,    -2.108,    58.879
126614,'1 ',1,     0.000,    90.000
126614,'EQ',1,     0.000,     0.403
126628,'EQ',1,     0.760,   -33.235
126631,'EQ',1,     0.808,   -36.123
126634,'EQ',1,     0.428,   -13.389
126637,'EQ',1,     0.817,   -35.741
126641,'EQ',1,    -2.757,   161.608
126642,'1 ',1,     0.000,  -150.000
126642,'EQ',1,   -28.004,  -764.340
126643,'EQ',1,     1.218,  -759.689
126644,'EQ',1,     1.400,   748.810
126724,'1 ',1,     0.000,   -70.000
126733,'1 ',1,     0.000,    40.000
126774,'EQ',1,     0.103,    77.173
126780,'EQ',1,    -0.972,    52.363
126781,'EQ',1,    -0.957,    52.223
126819,'EQ',1,     0.599,   -10.213
126847,'EQ',1,     1.988,  -107.775
127100,'1 ',1,     0.000,   -60.000
128245,'EQ',1,     0.451,   -24.107
128248,'EQ',1,    -0.445,    23.760
128700,'1 ',1,     0.000,   120.000
128824,'1 ',1,     0.000,  -150.000
128830,'1 ',1,     0.000,  -150.000
128842,'1 ',1,     0.000,   250.000
128900,'EQ',1,     8.869,   -67.738
129024,'EQ',1,    10.678,    59.148
129071,'EQ',1,    -0.905,    74.744
129076,'EQ',1,     4.377,   -28.962
129081,'EQ',1,     1.760,    35.790
129092,'EQ',1,     2.611,    28.754
129109,'EQ',1,    98.466,   -32.806
129270,'EQ',1,    -7.313,   134.859
129281,'EQ',1,    -0.155,    82.010
129293,'EQ',1,     6.589,   139.531
129310,'EQ',1,   -16.842,   663.693
129343,'2 ',1,     0.000,   100.000
129343,'EQ',1,     4.166,   188.828
129458,'EQ',1,  -111.850,   248.000
129469,'EQ',1,    -2.782,    62.333
129621,'EQ',1,   -90.159,   275.762
130750,'1 ',1,     0.000,   280.000
130750,'EQ',1,     1.247,    68.530
130751,'EQ',1,    -0.009,    -2.878
130753,'EQ',1,     0.131,  -106.275
130755,'1 ',1,     0.000,    50.000
130755,'EQ',1,    -2.043,   130.473
130762,'EQ',1,     0.259,    -7.582
130763,'EQ',1,    30.973, -1700.408
130764,'EQ',1,    -1.534,    41.702
130766,'EQ',1,     0.085,    -0.142
130805,'EQ',1,     1.895,    68.955
130806,'1 ',1,     0.000,   300.000
130806,'EQ',1,     0.080,   188.012
130807,'1 ',1,     0.000,    51.000
130807,'EQ',1,     1.079,    25.948
130814,'EQ',1,     6.590,  -161.582
130815,'EQ',1,    -3.138,    80.052
130824,'1 ',1,     0.000,    50.000
130824,'EQ',1,     5.857,    77.798
130826,'EQ',1,    -4.628,    24.828
130830,'EQ',1,    -0.442,    69.260
130836,'EQ',1,    -2.855,    29.732
130838,'EQ',1,     6.716,    68.420
130845,'EQ',1,    -2.638,    38.176
130846,'EQ',1,    -0.486,     9.412
130857,'EQ',1,     0.398,    52.970
130865,'EQ',1,    -0.902,   121.050
130872,'EQ',1,     0.066,    31.531
130876,'EQ',1,   -37.564,  1952.284
131103,'EQ',1,     0.460,     4.888
131155,'EQ',1,     3.522,    54.669
131241,'EQ',1,     2.802,    34.636
131393,'EQ',1,     3.547,    14.353
131611,'EQ',1,    -0.703,    22.003
131613,'1 ',1,     0.000,     3.000
131646,'EQ',1,     0.721,   -19.325
131753,'1 ',1,     0.000,    10.000
131753,'EQ',1,     0.117,     8.223
134854,'EQ',1,     0.615,    13.213
135200,'EQ',1,    -0.028,     0.959
135203,'EQ',1,     0.029,     0.334
135251,'EQ',1,     0.000,     0.601
135273,'1 ',1,     0.000,    32.000
135273,'EQ',1,     0.187,    18.032
135277,'1 ',1,     0.000,    50.000
135277,'EQ',1,     3.637,    -2.844
135406,'EQ',1,     0.000,     0.401
135414,'1 ',1,     0.000,   100.000
135416,'1 ',1,     0.170,   -34.400
135417,'1 ',1,     0.170,   -34.400
135435,'EQ',1,     0.001,     0.191
135451,'1 ',1,     0.000,   150.000
135451,'EQ',1,     0.148,     3.492
135460,'EQ',1,     1.797,     1.466
135461,'EQ',1,    -0.015,     1.886
135497,'EQ',1,     0.021,     0.057
135498,'EQ',1,    -0.010,     0.985
135564,'EQ',1,     1.402,    44.698
135613,'1 ',1,     0.000,   100.000
135614,'1 ',1,     0.200,   -87.400
135871,'EQ',1,    -0.280,    59.728
136101,'EQ',1,     0.000,     0.148
136102,'EQ',1,     0.000,     0.148
136181,'1 ',1,     0.000,   108.000
136181,'EQ',1,     2.524,    23.394
136189,'EQ',1,     1.481,    41.197
136191,'EQ',1,     2.575,   111.506
136225,'EQ',1,    -0.196,    79.515
...
0 / END OF FIXED SHUNT DATA, BEGIN GENERATOR DATA
108894,'Z ',    19.940,     2.365,     9.970,    -7.580,1.00000,     0,    28.000, 0.00000E+0, 3.10000E-1, 0.00000E+0, 0.00000E+0,1.00000,1,  100.0,  9999.000, -9999.000, 101,1.0000
109550,'Z ',    48.990,    20.754,    24.490,   -12.250,1.00000,     0,    51.000, 0.00000E+0, 3.40000E-1, 0.00000E+0, 0.00000E+0,1.00000,1,  100.0,  9999.000, -9999.000, 101,1.0000
110984,'Z ',    60.140,   -20.740,    30.070,   -20.740,1.00000,     0,    79.580, 0.00000E+0, 2.64230E-1, 0.00000E+0, 0.00000E+0,1.00000,1,  100.0,  9999.000, -9999.000, 101,1.0000
111126,'Z ',   174.000,    -0.589,    87.000,   -43.500,1.00000,     0,   219.000, 0.00000E+0, 2.45000E-1, 0.00000E+0, 0.00000E+0,1.00000,1,  100.0,  9999.000, -9999.000, 101,1.0000
113096,'Z ',   593.110,    61.347,   296.550,  -148.280,1.00000,     0,   666.000, 0.00000E+0, 3.06450E-1, 0.00000E+0, 0.00000E+0,1.00000,1,  100.0,  9999.000, -9999.000, 101,1.0000
113102,'Z ',    22.900,     2.405,    11.450,   -12.340,1.00000,     0,    28.500, 0.00000E+0, 2.89860E-1, 0.00000E+0, 0.00000E+0,1.00000,1,  100.0,  9999.000, -9999.000, 101,1.0000
113405,'Z ',   349.460,    19.937,   174.730,   -87.360,1.00000,     0,   475.000, 0.00000E+0, 3.07980E-1, 0.00000E+0, 0.00000E+0,1.00000,1,  100.0,  9999.000, -9999.000, 101,1.0000
115742,'Z ',   170.600,    52.435,    85.300,   -42.650,1.00000,     0,   200.000, 0.00000E+0, 1.79000E-1, 0.00000E+0, 0.00000E+0,1.00000,1,  100.0,  9999.000, -9999.000, 101,1.0000
116579,'Z ',    64.680,    11.226,    32.340,   -28.940,1.00000,     0,    77.520, 0.00000E+0, 3.80000E-1, 0.00000E+0, 0.00000E+0,1.00000,1,  100.0,  9999.000, -9999.000, 101,1.0000
116618,'Z ',   173.290,   -18.029,    86.640,   -43.320,1.00000,     0,   232.200, 0.00000E+0, 2.51400E-1, 0.00000E+0, 0.00000E+0,1.00000,1,  100.0,  9999.000, -9999.000, 101,1.0000
121513,'Z ',   897.000,    28.773,   448.500,  -224.250,1.00000,     0,  1020.000, 0.00000E+0, 2.50000E-1, 0.00000E+0, 0.00000E+0,1.00000,1,  100.0,  9999.000, -9999.000, 101,1.0000
122933,'Z ',   111.480,   -11.180,    55.740,   -27.870,1.00000,     0,   139.400, 0.00000E+0, 2.69450E-1, 0.00000E+0, 0.00000E+0,1.00000,1,  100.0,  9999.000, -9999.000, 101,1.0000
125024,'1 ',     0.280,     0.000,     0.000,     0.000,1.00000,     0,     1.000, 0.00000E+0, 1.53000E-1, 0.00000E+0, 1.75000E-1,1.00000,1,  100.0,     0.500,     0.000, 141,1.0000
125033,'1 ',     1.100,     0.000,     0.000,     0.000,1.00000,     0,     3.000, 0.00000E+0, 1.53000E-1, 0.00000E+0, 1.75000E-1,1.00000,1,  100.0,     2.000,     0.000, 141,1.0000
125093,'Z ',    34.660,     7.242,    17.330,    -8.670,1.00000,     0,    50.000, 0.00000E+0, 2.60000E-1, 0.00000E+0, 2.89700E-2,1.00000,1,  100.0,  9999.000, -9999.000, 141,1.0000
125190,'1 ',  1026.940,    97.075,   276.000,   -57.690,1.00000,     0,   690.000, 0.00000E+0, 1.95000E-1, 0.00000E+0, 0.00000E+0,1.00000,1,  100.0,   589.500,   150.000, 141,1.0000
125192,'2 ',   587.000,    24.297,   266.400,   -47.460,1.00000,     0,   690.000, 0.00000E+0, 1.95000E-1, 0.00000E+0, 0.00000E+0,1.00000,1,  100.0,   599.500,     0.000, 141,1.0000
125193,'Z ',   324.470,   117.463,   162.240,   -81.120,1.00000,     0,   454.600, 0.00000E+0, 1.90000E-1, 0.00000E+0, 0.00000E+0,1.00000,1,  100.0,  9999.000, -9999.000, 141,1.0000
125195,'Z ',   114.000,    42.459,    83.000,   -28.500,1.00000,     0,   141.200, 0.00000E+0, 1.30000E-1, 0.00000E+0, 0.00000E+0,1.00000,1,  100.0,  9999.000, -9999.000, 141,1.0000
126251,'1 ',    62.990,    36.936,    50.610,   -10.550,1.00000,     0,    81.000, 0.00000E+0, 1.00000E-1, 0.00000E+0, 0.00000E+0,1.03030,1,  100.0,    71.550,    19.200, 142,1.0000
126251,'2 ',    70.590,    41.393,    50.610,   -10.550,1.00000,     0,    75.000, 0.00000E+0, 1.30000E-1, 0.00000E+0, 0.00000E+0,1.03030,1,  100.0,    71.550,    17.800, 142,1.0000
126252,'1 ',    82.390,    47.340,    47.340,    -8.460,1.00000,     0,   100.000, 0.00000E+0, 9.30000E-2, 0.00000E+0, 0.00000E+0,1.03030,1,  100.0,    92.800,    30.500, 142,1.0000
126252,'2 ',    82.390,    47.340,    47.340,    -8.460,1.00000,     0,   100.000, 0.00000E+0, 9.30000E-2, 0.00000E+0, 0.00000E+0,1.03030,1,  100.0,    92.800,    30.500, 142,1.0000
126257,'Z ',   256.870,    68.209,   128.430,   -64.220,1.00000,     0,   368.000, 0.00000E+0, 1.52000E-1, 0.00000E+0, 0.00000E+0,1.00000,1,  100.0,  9999.000, -9999.000, 142,1.0000
126271,'Z ',   132.450,    35.503,    66.220,   -33.110,1.00000,     0,   184.000, 0.00000E+0, 1.52000E-1, 0.00000E+0, 0.00000E+0,1.00000,1,  100.0,  9999.000, -9999.000, 142,1.0000
126302,'Z ',   265.030,    66.613,   132.510,   -66.260,1.00000,     0,   473.600, 0.00000E+0, 1.72000E-1, 0.00000E+0, 0.00000E+0,1.00000,1,  100.0,  9999.000, -9999.000, 142,1.0000
126311,'Z ',   339.000,   -56.464,   169.500,   -84.750,1.00000,     0,   558.000, 0.00000E+0, 1.40000E-1, 0.00000E+0, 0.00000E+0,1.00000,1,  100.0,  9999.000, -9999.000, 142,1.0000
126328,'1 ',    68.540,    18.529,    48.440,   -22.280,1.00000,     0,    92.000, 0.00000E+0, 1.52000E-1, 0.00000E+0, 0.00000E+0,1.00000,1,  100.0,    72.500,    60.000, 142,1.0000
126329,'1 ',    63.120,    16.886,    49.960,   -25.240,1.00000,     0,    92.000, 0.00000E+0, 1.52000E-1, 0.00000E+0, 0.00000E+0,1.00000,1,  100.0,    68.000,    60.000, 142,1.0000
126340,'Z ',   213.830,    61.464,   106.920,   -53.460,1.00000,     0,   315.900, 0.00000E+0, 1.80000E-1, 0.00000E+0, 0.00000E+0,1.00000,1,  100.0,  9999.000, -9999.000, 142,1.0000
126359,'1 ',     0.000,    31.963,    36.060,   -15.200,1.00000,     0,    74.600, 0.00000E+0, 1.70000E-1, 0.00000E+0, 1.75000E-1,1.00000,1,  100.0,    52.100,     0.000, 142,1.0000
126379,'1 ',    60.730,    26.759,    27.240,   -16.690,1.00000,     0,   100.000, 0.00000E+0, 2.50000E-1, 0.00000E+0, 0.00000E+0,1.00000,1,   15.0,    82.440,     0.000, 142,1.0000
126379,'2 ',    60.730,    26.759,    29.620,   -18.160,1.00000,     0,   100.000, 0.00000E+0, 3.00000E-1, 0.00000E+0, 0.00000E+0,1.00000,1,   15.0,    89.660,     0.000, 142,1.0000
126468,'1 ',   129.130,    40.310,    40.310,   -62.410,1.00000,     0,   195.000, 2.50000E-3, 1.65000E-1, 0.00000E+0, 0.00000E+0,1.00000,1,  100.0,   152.300,    30.000, 142,1.0000
126469,'1 ',   148.440,     7.260,    76.850,   -61.600,1.00000,     0,   195.000, 2.50000E-3, 1.65000E-1, 0.00000E+0, 0.00000E+0,1.00000,1,  100.0,   149.100,    30.000, 142,1.0000
126588,'Z ',    25.480,    12.740,    12.740,    -6.370,1.00000,     0,    43.760, 0.00000E+0, 2.88000E-1, 0.00000E+0, 0.00000E+0,1.00000,1,  100.0,  9999.000, -9999.000, 142,1.0000
126650,'1 ',   202.030,    99.328,   311.380,  -142.380,1.00000,     0,   595.000, 0.00000E+0, 2.25000E-1, 0.00000E+0, 0.00000E+0,1.00000,1,  100.0,   512.600,   141.000, 142,1.0000
126651,'2 ',  1012.100,   309.163,   512.620,   -69.540,1.00000,     0,  1439.180, 0.00000E+0, 3.05000E-1, 0.00000E+0, 0.00000E+0,1.00000,1,  100.0,  1012.090,   314.000, 142,1.0000
126652,'1 ',   250.310,    25.964,   309.720,  -119.670,1.00000,     0,   556.000, 2.00000E-3, 2.65000E-1, 0.00000E+0, 0.00000E+0,1.00000,1,  100.0,   429.850,    75.000, 142,1.0000
126652,'2 ',   309.890,    32.144,   391.000,  -151.070,1.00000,     0,   820.000, 2.71000E-3, 2.35000E-1, 0.00000E+0, 0.00000E+0,1.00000,1,  100.0,   542.660,    75.000, 142,1.0000
126653,'1 ',   128.180,    38.606,   146.380,   -77.180,1.00000,     0,   202.000, 4.00000E-3, 2.50000E-1, 0.00000E+0, 0.00000E+0,1.00000,1,  100.0,   165.500,    32.600, 142,1.0000
126653,'2 ',   131.490,    39.603,   146.380,   -77.180,1.00000,     0,   226.000, 5.00000E-3, 3.00000E-1, 0.00000E+0, 0.00000E+0,1.00000,1,  100.0,   165.500,    36.400, 142,1.0000
126654,'1 ',   156.940,    37.544,   121.300,   -79.950,1.00000,     0,   202.000, 4.00000E-3, 2.50000E-1, 0.00000E+0, 0.00000E+0,1.00000,1,  100.0,   178.940,    32.600, 142,1.0000
126654,'2 ',   177.860,    42.548,   135.700,   -89.430,1.00000,     0,   226.000, 5.00000E-3, 3.00000E-1, 0.00000E+0, 0.00000E+0,1.00000,1,  100.0,   200.160,    36.400, 142,1.0000
126656,'1 ',   105.790,    36.925,   156.860,   -42.510,1.00000,     0,   227.000, 2.00000E-3, 2.00000E-1, 0.00000E+0, 0.00000E+0,1.00000,1,  100.0,   196.600,    36.600, 142,1.0000
126656,'2 ',   105.790,    36.925,   147.140,   -39.870,1.00000,     0,   213.000, 6.00000E-3, 3.60000E-1, 0.00000E+0, 0.00000E+0,1.00000,1,  100.0,   184.400,    34.400, 142,1.0000
126657,'1 ',   146.360,   -13.736,   148.580,   -76.080,1.00000,     0,   212.000, 6.00000E-3, 2.20000E-1, 0.00000E+0, 0.00000E+0,1.00000,1,   37.0,   170.920,    35.000, 142,1.0000
126657,'2 ',   173.710,   -16.303,   169.570,   -86.840,1.00000,     0,   242.000, 6.00000E-3, 2.25000E-1, 0.00000E+0, 0.00000E+0,1.00000,1,   37.0,   195.080,    40.000, 142,1.0000
126658,'1 ',    72.000,   -67.692,   153.070,   -80.470,1.00000,     0,   212.000, 6.00000E-3, 2.20000E-1, 0.00000E+0, 0.00000E+0,1.00000,1,   37.0,   175.690,    35.000, 142,1.0000
126658,'2 ',    82.000,   -77.094,   174.700,   -91.840,1.00000,     0,   242.000, 6.00000E-3, 2.47600E-1, 0.00000E+0, 0.00000E+0,1.00000,1,   37.0,   200.510,    40.000, 142,1.0000
126659,'1 ',    42.050,    -1.260,    42.130,   -18.380,1.00000,     0,   102.540, 0.00000E+0, 1.75000E-1, 0.00000E+0, 0.00000E+0,1.00000,1,  100.0,    95.190,     0.000, 142,1.0000
126660,'Z ',   210.260,    -6.186,   105.130,   -52.560,1.00000,     0,   529.000, 0.00000E+0, 3.13000E-1, 0.00000E+0, 0.00000E+0,1.00000,1,  100.0,  9999.000, -9999.000, 142,1.0000
126662,'Z ',    42.050,    -1.241,    21.030,   -10.510,1.00000,     0,   105.800, 0.00000E+0, 3.13000E-1, 0.00000E+0, 0.00000E+0,1.00000,1,  100.0,  9999.000, -9999.000, 142,1.0000
126664,'1 ',    42.050,    -1.256,    42.130,   -18.380,1.00000,     0,   105.800, 0.00000E+0, 2.20000E-1, 0.00000E+0, 0.00000E+0,1.00000,1,  100.0,    95.190,     0.000, 142,1.0000
126674,'Z ',    74.030,    13.536,    37.020,   -18.510,1.00000,     0,   110.800, 0.00000E+0, 1.83000E-1, 0.00000E+0, 0.00000E+0,1.00000,1,  100.0,  9999.000, -9999.000, 142,1.0000
126676,'1 ',    21.360,     3.852,    11.920,    -4.950,1.00000,     0,    28.000, 0.00000E+0, 1.48000E-1, 0.00000E+0, 0.00000E+0,1.00000,1,  100.0,    26.210,     0.000, 142,1.0000
126683,'1 ',    87.110,    11.235,    38.570,   -13.580,1.00000,     0,   125.000, 0.00000E+0, 1.93000E-1, 0.00000E+0, 0.00000E+0,1.00000,1,  100.0,    97.890,     0.000, 142,1.0000
126684,'Z ',    62.500,    19.177,    31.250,   -15.620,1.00000,     0,    94.000, 0.00000E+0, 2.80000E-1, 0.00000E+0, 0.00000E+0,1.00000,1,  100.0,  9999.000, -9999.000, 142,1.0000
126686,'1 ',    86.070,    11.176,    38.570,   -13.580,1.00000,     0,   125.000, 0.00000E+0, 1.93000E-1, 0.00000E+0, 0.00000E+0,1.00000,1,  100.0,    97.890,     0.000, 142,1.0000
126692,'1 ',   120.510,    35.123,    54.350,   -44.300,1.00000,     0,   222.100, 1.47000E-3, 1.85000E-1, 0.00000E+0, 0.00000E+0,1.00000,1,   20.0,   156.180,    40.000, 142,1.0000
126710,'1 ',   120.510,    33.945,    54.350,   -44.300,1.00000,     0,   222.100, 1.47000E-3, 1.85000E-1, 0.00000E+0, 0.00000E+0,1.00000,1,   20.0,   156.180,    40.000, 142,1.0000
126711,'1 ',   189.370,    57.443,    85.400,   -69.610,1.00000,     0,   300.280, 8.40000E-4, 1.73000E-1, 0.00000E+0, 0.00000E+0,1.00000,1,   20.0,   245.430,    40.000, 142,1.0000
126736,'Z ',    30.170,    -7.356,    15.080,    -9.990,1.00000,     0,    43.750, 0.00000E+0, 2.10000E-1, 0.00000E+0, 0.00000E+0,1.00000,1,  100.0,  9999.000, -9999.000, 142,1.0000
126737,'1 ',    57.840,    -0.309,    31.360,   -18.800,1.00000,     0,    87.500, 0.00000E+0, 1.20000E-1, 0.00000E+0, 0.00000E+0,1.00000,1,  100.0,    61.300,    34.000, 142,1.0000
126738,'1 ',    31.860,    -0.464,    27.180,   -13.060,1.00000,     0,    87.500, 0.00000E+0, 1.20000E-1, 0.00000E+0, 0.00000E+0,1.00000,1,  100.0,    59.600,     0.000, 142,1.0000
128253,'Z ',   419.830,   129.212,   209.910,  -104.960,1.00000,     0,   602.350, 0.00000E+0, 1.98000E-1, 0.00000E+0, 0.00000E+0,1.00000,1,  100.0,  9999.000, -9999.000, 142,1.0000
128900,'Z ',   386.000,   112.484,   193.000,   -96.500,1.00000,     0,   397.060, 0.00000E+0, 1.30000E-1, 0.00000E+0, 0.00000E+0,1.00000,1,  100.0,  9999.000, -9999.000, 143,1.0000
129024,'Z ',   953.830,    -3.137,   476.920,  -238.460,1.00000,     0,  1290.300, 0.00000E+0, 2.25000E-1, 0.00000E+0, 0.00000E+0,1.00000,1,  100.0,  9999.000, -9999.000, 143,1.0000
129071,'Z ',   288.340,   -10.025,   144.170,   -72.090,1.00000,     0,   387.660, 0.00000E+0, 1.72600E-1, 0.00000E+0, 0.00000E+0,1.00000,1,  100.0,  9999.000, -9999.000, 143,1.0000
129076,'Z ',   235.980,    76.600,   117.990,   -58.990,1.00000,     0,   315.000, 0.00000E+0, 2.00000E-1, 0.00000E+0, 0.00000E+0,1.00000,1,  100.0,  9999.000, -9999.000, 143,1.0000
129081,'Z ',   235.260,    76.729,   117.630,   -58.820,1.00000,     0,   315.000, 0.00000E+0, 2.00000E-1, 0.00000E+0, 0.00000E+0,1.00000,1,  100.0,  9999.000, -9999.000, 143,1.0000
...